fluxo_de_potencia/001001/run_cargas_agregadas.dss
New Object = Circuit.001001_Barra_Slack
~ basekv = 13.8 pu = 1.029 angle = 0
New line.001001001001 phases = 3 bus1 = SourceBus bus2 = 59904014827576618MT.1.2.3 switch = y
New linecode.16512328H-3_linecode_media nphases=3 BaseFreq=60
~ r1=0.000306
~ x1=0.00038500000000000003
~ c1=0
~ Normamps=365.0
~ Emergamps=511.0
New linecode.16512329H-3_linecode_media nphases=3 BaseFreq=60
~ r1=0.000975
~ x1=0.000347
~ c1=0
~ Normamps=175.0
~ Emergamps=245.0
New linecode.16512329H-3P_linecode_media nphases=3 BaseFreq=60
~ r1=0.000975
~ x1=0.000347
~ c1=0
~ Normamps=175.0
~ Emergamps=245.0
New linecode.16512375H-3_linecode_media nphases=3 BaseFreq=60
~ r1=0.000195
~ x1=0.00029099999999999997
~ c1=0
~ Normamps=495.0
~ Emergamps=693.0
New linecode.45225705C-3_linecode_media nphases=3 BaseFreq=60
~ r1=0.000732
~ x1=0.000303
~ c1=0
~ Normamps=184.0
~ Emergamps=258.0
New linecode.5281622H-3_linecode_media nphases=3 BaseFreq=60
~ r1=0.00131
~ x1=0.00041
~ c1=0
~ Normamps=68.0
~ Emergamps=68.0
New linecode.5281622H-3P_linecode_media nphases=3 BaseFreq=60
~ r1=0.00131
~ x1=0.00041
~ c1=0
~ Normamps=68.0
~ Emergamps=68.0
New linecode.5281627C-3_linecode_media nphases=3 BaseFreq=60
~ r1=0.000992
~ x1=0.00011700000000000001
~ c1=0
~ Normamps=70.0
~ Emergamps=70.0
New linecode.5281627C-3P_linecode_media nphases=3 BaseFreq=60
~ r1=0.000992
~ x1=0.00011700000000000001
~ c1=0
~ Normamps=70.0
~ Emergamps=70.0
New linecode.5281628C-3_linecode_media nphases=3 BaseFreq=60
~ r1=0.000247
~ x1=0.000259
~ c1=0
~ Normamps=291.0
~ Emergamps=291.0
New linecode.5281631C-3_linecode_media nphases=3 BaseFreq=60
~ r1=0.000739
~ x1=0.000303
~ c1=0
~ Normamps=152.0
~ Emergamps=181.0
New linecode.5281631C-3P_linecode_media nphases=3 BaseFreq=60
~ r1=0.000739
~ x1=0.000303
~ c1=0
~ Normamps=152.0
~ Emergamps=181.0
New linecode.5281632C-3_linecode_media nphases=3 BaseFreq=60
~ r1=0.00019700000000000002
~ x1=0.000251
~ c1=0
~ Normamps=368.0
~ Emergamps=400.0
New Capacitor.1236705_Banco_de_Capacitor Bus1 = 0011236687.1.2.3 kv = 13.800 kVAR = 14 phases = 3 conn = wye
New Capacitor.1236732_Banco_de_Capacitor Bus1 = 0011236715.1.2.3 kv = 13.800 kVAR = 14 phases = 3 conn = wye
New Capacitor.1236761_Banco_de_Capacitor Bus1 = 0011236743.1.2.3 kv = 13.800 kVAR = 14 phases = 3 conn = wye
New Capacitor.1236791_Banco_de_Capacitor Bus1 = 0011236774.1.2.3 kv = 13.800 kVAR = 14 phases = 3 conn = wye
New Capacitor.1236890_Banco_de_Capacitor Bus1 = 0011236822.1.2.3 kv = 13.800 kVAR = 14 phases = 3 conn = wye
New Capacitor.1236893_Banco_de_Capacitor Bus1 = 0011236836.1.2.3 kv = 13.800 kVAR = 14 phases = 3 conn = wye
New Capacitor.1236897_Banco_de_Capacitor Bus1 = 0011236850.1.2.3 kv = 13.800 kVAR = 14 phases = 3 conn = wye
New Capacitor.1236900_Banco_de_Capacitor Bus1 = 0011236864.1.2.3 kv = 13.800 kVAR = 14 phases = 3 conn = wye
New Capacitor.34559532_Banco_de_Capacitor Bus1 = 59818346827373370MT.1.2.3 kv = 13.800 kVAR = 17 phases = 3 conn = wye
New line.1207330_Chave_seccionadora_media_tensao phases = 3 bus1 = 0011207322.1.2.3 bus2 = 0011207330.1.2.3 switch = F
New line.1207338_Chave_seccionadora_media_tensao phases = 3 bus1 = 0011207330.1.2.3 bus2 = 59904014827576618MT.1.2.3 switch = F
New line.5329885_Chave_seccionadora_media_tensao phases = 3 bus1 = 0014431411.1.2.3 bus2 = 0015329885.1.2.3 switch = F
New line.1207322_Chave_seccionadora_media_tensao phases = 3 bus1 = 0015329860.1.2.3 bus2 = 0011207322.1.2.3 switch = F
New line.5329860_Chave_seccionadora_media_tensao phases = 3 bus1 = 0015329872.1.2.3 bus2 = 0015329860.1.2.3 switch = F
New line.5329872_Chave_seccionadora_media_tensao phases = 3 bus1 = 0015329885.1.2.3 bus2 = 0015329872.1.2.3 switch = F
New line.64751677_Chave_seccionadora_media_tensao phases = 3 bus1 = 59802244827366428MT.1.2.3 bus2 = 59802215827366613MT.1.2.3 switch = A
New line.64751595_Chave_seccionadora_media_tensao phases = 3 bus1 = 59802405827366374MT.1.2.3 bus2 = 59802438827366411MT.1.2.3 switch = A
New line.64751691_Chave_seccionadora_media_tensao phases = 3 bus1 = 59802468827366680MT.1.2.3 bus2 = 59802529827366543MT.1.2.3 switch = F
New line.34582369CT_Chave_seccionadora_media_tensao phases = 3 bus1 = 59806782827412746MT.1.2.3 bus2 = 59806782827412746ET.1.2.3 switch = F
New line.34810741CT_Chave_seccionadora_media_tensao phases = 3 bus1 = 59810971827376595MT.1.2.3 bus2 = 59810971827376595ET.1.2.3 switch = F
New line.34670005CT_Chave_seccionadora_media_tensao phases = 3 bus1 = 59812242827401982MT.1.2.3 bus2 = 59812242827401982ET.1.2.3 switch = F
New line.64751679_Chave_seccionadora_media_tensao phases = 3 bus1 = 59813005827378968MT.1.2.3 bus2 = 59812907827378854MT.1.2.3 switch = F
New line.64751685_Chave_seccionadora_media_tensao phases = 3 bus1 = 59816303827375831MT.1.2.3 bus2 = 59816452827375817MT.1.2.3 switch = F
New line.64751594_Chave_seccionadora_media_tensao phases = 3 bus1 = 59816452827375817MT.1.2.3 bus2 = 59816563827375655MT.1.2.3 switch = F
New line.64751686_Chave_seccionadora_media_tensao phases = 3 bus1 = 59816563827375655MT.1.2.3 bus2 = 59816584827375568MT.1.2.3 switch = F
New line.64751673_Chave_seccionadora_media_tensao phases = 3 bus1 = 59816721827376234MT.1.2.3 bus2 = 59816797827376105MT.1.2.3 switch = A
New line.34665109CT_Chave_seccionadora_media_tensao phases = 3 bus1 = 59816839827370835MT.1.2.3 bus2 = 59816839827370835ET.1.2.3 switch = F
New line.34700631CT_Chave_seccionadora_media_tensao phases = 3 bus1 = 59817165827402679MT.1.2.3 bus2 = 59817165827402679ET.1.2.3 switch = F
New line.64709882_Chave_seccionadora_media_tensao phases = 3 bus1 = 59817405827374681MT.1.2.3 bus2 = 59817324827374555MT.1.2.3 switch = F
New line.34736980CT_Chave_seccionadora_media_tensao phases = 3 bus1 = 59817684827436747MT.1.2.3 bus2 = 59817684827436747ET.1.2.3 switch = F
New line.34790629CT_Chave_seccionadora_media_tensao phases = 3 bus1 = 59818006827434500MT.1.2.3 bus2 = 59818006827434500ET.1.2.3 switch = F
New line.64751676_Chave_seccionadora_media_tensao phases = 3 bus1 = 59818654827452423MT.1.2.3 bus2 = 59818548827452529MT.1.2.3 switch = A
New line.64659095_Chave_seccionadora_media_tensao phases = 3 bus1 = 59818869827435613MT.1.2.3 bus2 = 59818777827435494MT.1.2.3 switch = F
New line.34703389CT_Chave_seccionadora_media_tensao phases = 3 bus1 = 59820143827387423MT.1.2.3 bus2 = 59820143827387423ET.1.2.3 switch = F
New line.64659094_Chave_seccionadora_media_tensao phases = 3 bus1 = 59820226827434369MT.1.2.3 bus2 = 59820321827434485MT.1.2.3 switch = F
New line.64751674_Chave_seccionadora_media_tensao phases = 3 bus1 = 59820247827356982MT.1.2.3 bus2 = 59820112827356912MT.1.2.3 switch = A
New line.64751592_Chave_seccionadora_media_tensao phases = 3 bus1 = 59820391827356704MT.1.2.3 bus2 = 59820266827356617MT.1.2.3 switch = A
New line.34702388CT_Chave_seccionadora_media_tensao phases = 3 bus1 = 59820413827410398MT.1.2.3 bus2 = 59820413827410398ET.1.2.3 switch = F
New line.64751687_Chave_seccionadora_media_tensao phases = 3 bus1 = 59820415827356895MT.1.2.3 bus2 = 59820396827356746MT.1.2.3 switch = F
New line.34680900CT_Chave_seccionadora_media_tensao phases = 3 bus1 = 59820953827435264MT.1.2.3 bus2 = 59820953827435264ET.1.2.3 switch = F
New line.64659093_Chave_seccionadora_media_tensao phases = 3 bus1 = 59821594827371891MT.1.2.3 bus2 = 59821677827372016MT.1.2.3 switch = F
New line.34708044CT_Chave_seccionadora_media_tensao phases = 3 bus1 = 59821662827450099MT.1.2.3 bus2 = 59821662827450099ET.1.2.3 switch = F
New line.64751690_Chave_seccionadora_media_tensao phases = 3 bus1 = 59822916827449003MT.1.2.3 bus2 = 59822840827448873MT.1.2.3 switch = F
New line.64709881_Chave_seccionadora_media_tensao phases = 3 bus1 = 59823298827431836MT.1.2.3 bus2 = 59823408827431938MT.1.2.3 switch = F
New line.34786271CT_Chave_seccionadora_media_tensao phases = 3 bus1 = 59823498827452473MT.1.2.3 bus2 = 59823498827452473ET.1.2.3 switch = F
New line.34802486CT_Chave_seccionadora_media_tensao phases = 3 bus1 = 59824409827375917MT.1.2.3 bus2 = 59824409827375917ET.1.2.3 switch = F
New line.34747387CT_Chave_seccionadora_media_tensao phases = 3 bus1 = 59824848827446671MT.1.2.3 bus2 = 59824848827446671ET.1.2.3 switch = F
New line.34710896CT_Chave_seccionadora_media_tensao phases = 3 bus1 = 59825059827360320MT.1.2.3 bus2 = 59825059827360320ET.1.2.3 switch = F
New line.64670650_Chave_seccionadora_media_tensao phases = 3 bus1 = 59825169827359492MT.1.2.3 bus2 = 59825149827359641MT.1.2.3 switch = F
New line.34681522CT_Chave_seccionadora_media_tensao phases = 3 bus1 = 59827116827363936MT.1.2.3 bus2 = 59827116827363936ET.1.2.3 switch = F
New line.34734408CT_Chave_seccionadora_media_tensao phases = 3 bus1 = 59827132827444835MT.1.2.3 bus2 = 59827132827444835ET.1.2.3 switch = F
New line.64689980_Chave_seccionadora_media_tensao phases = 3 bus1 = 59827235827397137MT.1.2.3 bus2 = 59827115827397227MT.1.2.3 switch = F
New line.34685509CT_Chave_seccionadora_media_tensao phases = 3 bus1 = 59828247827448172MT.1.2.3 bus2 = 59828247827448172ET.1.2.3 switch = F
New line.64751678_Chave_seccionadora_media_tensao phases = 3 bus1 = 59828903827443529MT.1.2.3 bus2 = 59828782827443618MT.1.2.3 switch = F
New line.88108639CT_Chave_seccionadora_media_tensao phases = 3 bus1 = 59829142827389691MT.1.2.3 bus2 = 59829142827389691ET.1.2.3 switch = F
New line.34608978CT_Chave_seccionadora_media_tensao phases = 3 bus1 = 59829706827442810MT.1.2.3 bus2 = 59829706827442810ET.1.2.3 switch = F
New line.34654363CT_Chave_seccionadora_media_tensao phases = 3 bus1 = 59829717827468095MT.1.2.3 bus2 = 59829717827468095ET.1.2.3 switch = F
New line.64689979_Chave_seccionadora_media_tensao phases = 3 bus1 = 59830114827399980MT.1.2.3 bus2 = 59830011827400089MT.1.2.3 switch = F
New line.64687649_Chave_seccionadora_media_tensao phases = 3 bus1 = 59830503827425372MT.1.2.3 bus2 = 59830606827425481MT.1.2.3 switch = F
New line.64689984_Chave_seccionadora_media_tensao phases = 3 bus1 = 59830509827446212MT.1.2.3 bus2 = 59830423827446335MT.1.2.3 switch = F
New line.64689982_Chave_seccionadora_media_tensao phases = 3 bus1 = 59830624827360861MT.1.2.3 bus2 = 59830754827360936MT.1.2.3 switch = F
New line.64689981_Chave_seccionadora_media_tensao phases = 3 bus1 = 59831129827394985MT.1.2.3 bus2 = 59831244827394889MT.1.2.3 switch = F
New line.34577113CT_Chave_seccionadora_media_tensao phases = 3 bus1 = 59831169827357397MT.1.2.3 bus2 = 59831169827357397ET.1.2.3 switch = F
New line.34724728CT_Chave_seccionadora_media_tensao phases = 3 bus1 = 59831430827441297MT.1.2.3 bus2 = 59831430827441297ET.1.2.3 switch = F
New line.64751689_Chave_seccionadora_media_tensao phases = 3 bus1 = 59831734827353647MT.1.2.3 bus2 = 59831854827353737MT.1.2.3 switch = F
New line.34685510CT_Chave_seccionadora_media_tensao phases = 3 bus1 = 59832692827443724MT.1.2.3 bus2 = 59832692827443724ET.1.2.3 switch = F
New line.34648645CT_Chave_seccionadora_media_tensao phases = 3 bus1 = 59832979827378654MT.1.2.3 bus2 = 59832979827378654ET.1.2.3 switch = F
New line.64705352_Chave_seccionadora_media_tensao phases = 3 bus1 = 59833767827351593MT.1.2.3 bus2 = 59833821827351453MT.1.2.3 switch = F
New line.64705350_Chave_seccionadora_media_tensao phases = 3 bus1 = 59833775827355332MT.1.2.3 bus2 = 59833906827355406MT.1.2.3 switch = F
New line.34755505CT_Chave_seccionadora_media_tensao phases = 3 bus1 = 59833972827375170MT.1.2.3 bus2 = 59833972827375170ET.1.2.3 switch = F
New line.64670648_Chave_seccionadora_media_tensao phases = 3 bus1 = 59834066827376352MT.1.2.3 bus2 = 59834054827376202MT.1.2.3 switch = F
New line.34573464CT_Chave_seccionadora_media_tensao phases = 3 bus1 = 59834100827350734MT.1.2.3 bus2 = 59834100827350734ET.1.2.3 switch = F
New line.34641747CT_Chave_seccionadora_media_tensao phases = 3 bus1 = 59834644827438399MT.1.2.3 bus2 = 59834644827438399ET.1.2.3 switch = F
New line.34627372CT_Chave_seccionadora_media_tensao phases = 3 bus1 = 59835216827403383MT.1.2.3 bus2 = 59835216827403383ET.1.2.3 switch = F
New line.64740223_Chave_seccionadora_media_tensao phases = 3 bus1 = 59835766827437178MT.1.2.3 bus2 = 59835699827437044MT.1.2.3 switch = F
New line.34703352CT_Chave_seccionadora_media_tensao phases = 3 bus1 = 59835798827462585MT.1.2.3 bus2 = 59835798827462585ET.1.2.3 switch = F
New line.93252836CT_Chave_seccionadora_media_tensao phases = 3 bus1 = 59836244827457304MT.1.2.3 bus2 = 59836244827457304ET.1.2.3 switch = F
New line.34640756CT_Chave_seccionadora_media_tensao phases = 3 bus1 = 59836440827378773MT.1.2.3 bus2 = 59836440827378773ET.1.2.3 switch = F
New line.34573975CT_Chave_seccionadora_media_tensao phases = 3 bus1 = 59837115827364440MT.1.2.3 bus2 = 59837115827364440ET.1.2.3 switch = F
New line.34768152CT_Chave_seccionadora_media_tensao phases = 3 bus1 = 59838070827388336MT.1.2.3 bus2 = 59838070827388336ET.1.2.3 switch = F
New line.64751682_Chave_seccionadora_media_tensao phases = 3 bus1 = 59838219827438793MT.1.2.3 bus2 = 59838105827438890MT.1.2.3 switch = F
New line.34714989CT_Chave_seccionadora_media_tensao phases = 3 bus1 = 59838844827340340MT.1.2.3 bus2 = 59838844827340340ET.1.2.3 switch = F
New line.64740225_Chave_seccionadora_media_tensao phases = 3 bus1 = 59839035827434346MT.1.2.3 bus2 = 59839025827434196MT.1.2.3 switch = F
New line.64705351_Chave_seccionadora_media_tensao phases = 3 bus1 = 59839902827355427MT.1.2.3 bus2 = 59839973827355295MT.1.2.3 switch = F
New line.64751683_Chave_seccionadora_media_tensao phases = 3 bus1 = 59840163827408549MT.1.2.3 bus2 = 59840060827408440MT.1.2.3 switch = F
New line.64706476_Chave_seccionadora_media_tensao phases = 3 bus1 = 59840901827383095MT.1.2.3 bus2 = 59841020827383003MT.1.2.3 switch = F
New line.64689978_Chave_seccionadora_media_tensao phases = 3 bus1 = 59841259827436169MT.1.2.3 bus2 = 59841371827436069MT.1.2.3 switch = F
New line.64751681_Chave_seccionadora_media_tensao phases = 3 bus1 = 59842648827438541MT.1.2.3 bus2 = 59842552827438426MT.1.2.3 switch = F
New line.34682106CT_Chave_seccionadora_media_tensao phases = 3 bus1 = 59843571827455543MT.1.2.3 bus2 = 59843571827455543ET.1.2.3 switch = F
New line.64687648_Chave_seccionadora_media_tensao phases = 3 bus1 = 59844987827360146MT.1.2.3 bus2 = 59845083827360031MT.1.2.3 switch = F
New line.64709804_Chave_seccionadora_media_tensao phases = 3 bus1 = 59845939827442113MT.1.2.3 bus2 = 59845816827442199MT.1.2.3 switch = F
New line.34651824CT_Chave_seccionadora_media_tensao phases = 3 bus1 = 59847124827471117MT.1.2.3 bus2 = 59847124827471117ET.1.2.3 switch = F
New line.34630189CT_Chave_seccionadora_media_tensao phases = 3 bus1 = 59847272827346484MT.1.2.3 bus2 = 59847272827346484ET.1.2.3 switch = F
New line.34709770CT_Chave_seccionadora_media_tensao phases = 3 bus1 = 59848268827460601MT.1.2.3 bus2 = 59848268827460601ET.1.2.3 switch = F
New line.64670651_Chave_seccionadora_media_tensao phases = 3 bus1 = 59848981827378982MT.1.2.3 bus2 = 59849087827378876MT.1.2.3 switch = F
New line.34733464CT_Chave_seccionadora_media_tensao phases = 3 bus1 = 59849662827378302MT.1.2.3 bus2 = 59849662827378302ET.1.2.3 switch = F
New line.34675556CT_Chave_seccionadora_media_tensao phases = 3 bus1 = 59850552827447112MT.1.2.3 bus2 = 59850552827447112ET.1.2.3 switch = F
New line.34632356CT_Chave_seccionadora_media_tensao phases = 3 bus1 = 59851888827351241MT.1.2.3 bus2 = 59851888827351241ET.1.2.3 switch = F
New line.64704362_Chave_seccionadora_media_tensao phases = 3 bus1 = 59851922827354912MT.1.2.3 bus2 = 59851775827354940MT.1.2.3 switch = F
New line.34691991CT_Chave_seccionadora_media_tensao phases = 3 bus1 = 59852609827449509MT.1.2.3 bus2 = 59852609827449509ET.1.2.3 switch = F
New line.34591502CT_Chave_seccionadora_media_tensao phases = 3 bus1 = 59853051827365553MT.1.2.3 bus2 = 59853051827365553ET.1.2.3 switch = F
New line.34703392CT_Chave_seccionadora_media_tensao phases = 3 bus1 = 59853141827322292MT.1.2.3 bus2 = 59853141827322292ET.1.2.3 switch = F
New line.34702387CT_Chave_seccionadora_media_tensao phases = 3 bus1 = 59853800827451179MT.1.2.3 bus2 = 59853800827451179ET.1.2.3 switch = F
New line.34670007CT_Chave_seccionadora_media_tensao phases = 3 bus1 = 59855007827330753MT.1.2.3 bus2 = 59855007827330753ET.1.2.3 switch = F
New line.34666478CT_Chave_seccionadora_media_tensao phases = 3 bus1 = 59855904827461832MT.1.2.3 bus2 = 59855904827461832ET.1.2.3 switch = F
New line.64689985_Chave_seccionadora_media_tensao phases = 3 bus1 = 59856473827453966MT.1.2.3 bus2 = 59856445827453819MT.1.2.3 switch = F
New line.34629109CT_Chave_seccionadora_media_tensao phases = 3 bus1 = 59856838827454281MT.1.2.3 bus2 = 59856838827454281ET.1.2.3 switch = F
New line.64689986_Chave_seccionadora_media_tensao phases = 3 bus1 = 59857275827454769MT.1.2.3 bus2 = 59857237827454914MT.1.2.3 switch = F
New line.34628497CT_Chave_seccionadora_media_tensao phases = 3 bus1 = 59859142827356250MT.1.2.3 bus2 = 59859142827356250ET.1.2.3 switch = F
New line.34634929CT_Chave_seccionadora_media_tensao phases = 3 bus1 = 59859678827445111MT.1.2.3 bus2 = 59859678827445111ET.1.2.3 switch = F
New line.64689983_Chave_seccionadora_media_tensao phases = 3 bus1 = 59859723827322565MT.1.2.3 bus2 = 59859607827322470MT.1.2.3 switch = F
New line.34675557CT_Chave_seccionadora_media_tensao phases = 3 bus1 = 59860027827457816MT.1.2.3 bus2 = 59860027827457816ET.1.2.3 switch = F
New line.34786270CT_Chave_seccionadora_media_tensao phases = 3 bus1 = 59860781827446299MT.1.2.3 bus2 = 59860781827446299ET.1.2.3 switch = F
New line.34780759CT_Chave_seccionadora_media_tensao phases = 3 bus1 = 59861220827488445MT.1.2.3 bus2 = 59861220827488445ET.1.2.3 switch = F
New line.34722445CT_Chave_seccionadora_media_tensao phases = 3 bus1 = 59862248827322652MT.1.2.3 bus2 = 59862248827322652ET.1.2.3 switch = F
New line.34613763CT_Chave_seccionadora_media_tensao phases = 3 bus1 = 59862698827305726MT.1.2.3 bus2 = 59862698827305726ET.1.2.3 switch = F
New line.34622628CT_Chave_seccionadora_media_tensao phases = 3 bus1 = 59863408827449116MT.1.2.3 bus2 = 59863408827449116ET.1.2.3 switch = F
New line.34609977CT_Chave_seccionadora_media_tensao phases = 3 bus1 = 59864800827329702MT.1.2.3 bus2 = 59864800827329702ET.1.2.3 switch = F
New line.34636847CT_Chave_seccionadora_media_tensao phases = 3 bus1 = 59865762827294149MT.1.2.3 bus2 = 59865762827294149ET.1.2.3 switch = F
New line.34774244CT_Chave_seccionadora_media_tensao phases = 3 bus1 = 59865920827476103MT.1.2.3 bus2 = 59865920827476103ET.1.2.3 switch = F
New line.34633969CT_Chave_seccionadora_media_tensao phases = 3 bus1 = 59866408827452735MT.1.2.3 bus2 = 59866408827452735ET.1.2.3 switch = F
New line.64751680_Chave_seccionadora_media_tensao phases = 3 bus1 = 59866599827461721MT.1.2.3 bus2 = 59866698827461609MT.1.2.3 switch = F
New line.34755152CT_Chave_seccionadora_media_tensao phases = 3 bus1 = 59866966827286978MT.1.2.3 bus2 = 59866966827286978ET.1.2.3 switch = F
New line.64709880_Chave_seccionadora_media_tensao phases = 3 bus1 = 59867737827465340MT.1.2.3 bus2 = 59867619827465432MT.1.2.3 switch = F
New line.64740226_Chave_seccionadora_media_tensao phases = 3 bus1 = 59868463827284110MT.1.2.3 bus2 = 59868582827284202MT.1.2.3 switch = F
New line.64659090_Chave_seccionadora_media_tensao phases = 3 bus1 = 59868624827295210MT.1.2.3 bus2 = 59868519827295317MT.1.2.3 switch = F
New line.34570130CT_Chave_seccionadora_media_tensao phases = 3 bus1 = 59869143827309778MT.1.2.3 bus2 = 59869143827309778ET.1.2.3 switch = F
New line.34801742CT_Chave_seccionadora_media_tensao phases = 3 bus1 = 59869874827458012MT.1.2.3 bus2 = 59869874827458012ET.1.2.3 switch = F
New line.34732115CT_Chave_seccionadora_media_tensao phases = 3 bus1 = 59871354827454820MT.1.2.3 bus2 = 59871354827454820ET.1.2.3 switch = F
New line.64689977_Chave_seccionadora_media_tensao phases = 3 bus1 = 59871786827467280MT.1.2.3 bus2 = 59871691827467396MT.1.2.3 switch = F
New line.34737790CT_Chave_seccionadora_media_tensao phases = 3 bus1 = 59874584827306092MT.1.2.3 bus2 = 59874584827306092ET.1.2.3 switch = F
New line.34770523CT_Chave_seccionadora_media_tensao phases = 3 bus1 = 59875009827318466MT.1.2.3 bus2 = 59875009827318466ET.1.2.3 switch = F
New line.64670652_Chave_seccionadora_media_tensao phases = 3 bus1 = 59877850827454244MT.1.2.3 bus2 = 59877974827454159MT.1.2.3 switch = F
New line.34611765CT_Chave_seccionadora_media_tensao phases = 3 bus1 = 59878986827453464MT.1.2.3 bus2 = 59878986827453464ET.1.2.3 switch = F
New line.34678710CT_Chave_seccionadora_media_tensao phases = 3 bus1 = 59879140827487897MT.1.2.3 bus2 = 59879140827487897ET.1.2.3 switch = F
New line.64702973_Chave_seccionadora_media_tensao phases = 3 bus1 = 59879888827308439MT.1.2.3 bus2 = 59879830827308577MT.1.2.3 switch = F
New line.64740222_Chave_seccionadora_media_tensao phases = 3 bus1 = 59880949827479168MT.1.2.3 bus2 = 59881098827479149MT.1.2.3 switch = F
New line.34651828CT_Chave_seccionadora_media_tensao phases = 3 bus1 = 59881167827319813MT.1.2.3 bus2 = 59881167827319813ET.1.2.3 switch = F
New line.34715142CT_Chave_seccionadora_media_tensao phases = 3 bus1 = 59881546827473576MT.1.2.3 bus2 = 59881546827473576ET.1.2.3 switch = F
New line.64702974_Chave_seccionadora_media_tensao phases = 3 bus1 = 59881617827470823MT.1.2.3 bus2 = 59881723827470717MT.1.2.3 switch = F
New line.34656591CT_Chave_seccionadora_media_tensao phases = 3 bus1 = 59882294827320030MT.1.2.3 bus2 = 59882294827320030ET.1.2.3 switch = F
New line.34656586CT_Chave_seccionadora_media_tensao phases = 3 bus1 = 59883846827539687MT.1.2.3 bus2 = 59883846827539687ET.1.2.3 switch = F
New line.34669303CT_Chave_seccionadora_media_tensao phases = 3 bus1 = 59884447827467982MT.1.2.3 bus2 = 59884447827467982ET.1.2.3 switch = F
New line.64679417_Chave_seccionadora_media_tensao phases = 3 bus1 = 59884881827475296MT.1.2.3 bus2 = 59884810827475428MT.1.2.3 switch = F
New line.64670649_Chave_seccionadora_media_tensao phases = 3 bus1 = 59885596827466696MT.1.2.3 bus2 = 59885738827466745MT.1.2.3 switch = F
New line.34790147CT_Chave_seccionadora_media_tensao phases = 3 bus1 = 59885633827476980MT.1.2.3 bus2 = 59885633827476980ET.1.2.3 switch = F
New line.64751672_Chave_seccionadora_media_tensao phases = 3 bus1 = 59886003827533655MT.1.2.3 bus2 = 59886302827533714MT.1.2.3 switch = A
New line.34660149CT_Chave_seccionadora_media_tensao phases = 3 bus1 = 59886166827312782MT.1.2.3 bus2 = 59886166827312782ET.1.2.3 switch = F
New line.34701103CT_Chave_seccionadora_media_tensao phases = 3 bus1 = 59886816827510034MT.1.2.3 bus2 = 59886816827510034ET.1.2.3 switch = F
New line.64659091_Chave_seccionadora_media_tensao phases = 3 bus1 = 59887031827308834MT.1.2.3 bus2 = 59887175827308791MT.1.2.3 switch = F
New line.34738068CT_Chave_seccionadora_media_tensao phases = 3 bus1 = 59887338827307570MT.1.2.3 bus2 = 59887338827307570ET.1.2.3 switch = F
New line.34669828CT_Chave_seccionadora_media_tensao phases = 3 bus1 = 59888308827478002MT.1.2.3 bus2 = 59888308827478002ET.1.2.3 switch = F
New line.64697769_Chave_seccionadora_media_tensao phases = 3 bus1 = 59889803827472568MT.1.2.3 bus2 = 59889912827472672MT.1.2.3 switch = F
New line.34723057CT_Chave_seccionadora_media_tensao phases = 3 bus1 = 59890397827472156MT.1.2.3 bus2 = 59890397827472156ET.1.2.3 switch = F
New line.34679627CT_Chave_seccionadora_media_tensao phases = 3 bus1 = 59890510827473242MT.1.2.3 bus2 = 59890510827473242ET.1.2.3 switch = F
New line.64740224_Chave_seccionadora_media_tensao phases = 3 bus1 = 59891696827471066MT.1.2.3 bus2 = 59891807827471167MT.1.2.3 switch = F
New line.64659092_Chave_seccionadora_media_tensao phases = 3 bus1 = 59891838827520504MT.1.2.3 bus2 = 59891782827520365MT.1.2.3 switch = F
New line.64751684_Chave_seccionadora_media_tensao phases = 3 bus1 = 59893250827516491MT.1.2.3 bus2 = 59893242827516341MT.1.2.3 switch = F
New line.34594702CT_Chave_seccionadora_media_tensao phases = 3 bus1 = 59894232827510736MT.1.2.3 bus2 = 59894232827510736ET.1.2.3 switch = F
New line.34621072CT_Chave_seccionadora_media_tensao phases = 3 bus1 = 59897598827483570MT.1.2.3 bus2 = 59897598827483570ET.1.2.3 switch = F
New line.64751688_Chave_seccionadora_media_tensao phases = 3 bus1 = 59899237827510258MT.1.2.3 bus2 = 59899267827510405MT.1.2.3 switch = F
New line.1207346_Chave_seccionadora_media_tensao phases = 3 bus1 = 59904014827576618MT.1.2.3 bus2 = 0011207346.1.2.3 switch = A
New line.64751692_Chave_seccionadora_media_tensao phases = 3 bus1 = 59905705827568463MT.1.2.3 bus2 = 59905702827568313MT.1.2.3 switch = F
New line.64751597_Chave_seccionadora_media_tensao phases = 3 bus1 = 59908602827568737MT.1.2.3 bus2 = 59908744827568785MT.1.2.3 switch = A
New Load.nome_08178a82a281e783999cabfee7208a1dc247966857d661af24de961896bcbc00_curva_diaria_MT-Tipo1_curva_anual_0.0_0.0_0.0_0.0_0.0_0.0_0.0_0.0_0.0_0.0_0.0_0.0_carga_media Bus1=59849896827355294MT.1.2.3 Phases=3
~ Conn=wye Model=1 Kv=13.8 Kw=1 pf=0.92
New Load.nome_14f15cb1a1d6a9bd754f943d0b7e21a182c223491313347a20113c7d0da48c39_curva_diaria_MT-Tipo4_curva_anual_0.0_0.0_0.0_0.0_0.0_0.0_0.0_0.0_0.0_0.0_0.0_0.0_carga_media Bus1=59845689827359306MT.1.2.3 Phases=3
~ Conn=wye Model=1 Kv=13.8 Kw=1 pf=0.92
New Load.nome_45f552ff5114301d55ee33ea2940c4b17862c129ea1960da503589408e40eac6_curva_diaria_MT-Tipo1_curva_anual_15.48_13.73_0.0_12.8_13.78_12.04_10.06_18.14_23.52_35.32_17.88_24.32_carga_media Bus1=59827871827436081MT.1.2.3 Phases=3
~ Conn=wye Model=1 Kv=13.8 Kw=1 pf=0.92
New Load.nome_4cd2757574419c9769d110608aafb888b953d403bba483a873503d1041605b61_curva_diaria_MT-Tipo10_curva_anual_11.92_10.03_12.72_10.77_10.66_8.27_9.35_13.71_13.21_30.52_27.08_17.16_carga_media Bus1=59831430827441297MT.1.2.3 Phases=3
~ Conn=wye Model=1 Kv=13.8 Kw=1 pf=0.92
New Load.nome_7087f2b839ae31e30575c5bb12af44be7547ca4fddf34bb91500d1ead50b46ce_curva_diaria_MT-Tipo7_curva_anual_29.02_30.0_28.03_8.73_8.23_5.1_0.5_0.36_0.5_0.19_19.75_0.0_carga_media Bus1=59820143827387423ET.1.2.3 Phases=3
~ Conn=wye Model=1 Kv=13.8 Kw=1 pf=0.92
New Load.nome_7ce29f4ef3aada651d19714375492e65cc85130d2b5cf06314bc2a8b7f90eeab_curva_diaria_MT-Tipo1_curva_anual_19.12_17.13_18.39_20.09_17.99_2.37_1.45_2.15_2.32_3.05_2.21_2.03_carga_media Bus1=59878986827453464MT.1.2.3 Phases=3
~ Conn=wye Model=1 Kv=13.8 Kw=1 pf=0.92
New Load.nome_8b424142dd9708d436db47cfe640da77109a3bf5a59f12f45459aefa0ccf38f2_curva_diaria_MT-Tipo10_curva_anual_328.71_278.5_355.55_319.85_337.7_273.53_288.47_431.83_453.01_677.01_466.91_434.7_carga_media Bus1=59882057827479030MT.1.2.3 Phases=3
~ Conn=wye Model=1 Kv=13.8 Kw=1 pf=0.92
New Load.nome_90dbdf05c7473b94d83e52ebd5f8262947419dd012ffd1de3a7a52f98c71744e_curva_diaria_MT-Tipo1_curva_anual_36.4_31.73_34.15_34.52_31.38_28.66_26.86_41.69_48.02_67.04_47.21_40.08_carga_media Bus1=59825059827360320MT.1.2.3 Phases=3
~ Conn=wye Model=1 Kv=13.8 Kw=1 pf=0.92
New Load.nome_93d3cb77edbdc8523d2d881da89c4cbaf8fdcf365300b1aaaa80b7d6e2da6a9b_curva_diaria_MT-Tipo9_curva_anual_32.45_32.55_35.31_33.39_29.99_28.72_24.01_42.19_55.75_91.18_64.9_63.78_carga_media Bus1=59890510827473242MT.1.2.3 Phases=3
~ Conn=wye Model=1 Kv=13.8 Kw=1 pf=0.92
New Load.nome_97537a2c610c3f6fb5100aa39daedb7c2f66cf85f512b5269fd15800daf3feeb_curva_diaria_MT-Tipo4_curva_anual_0.0_0.0_0.0_0.0_0.0_0.0_6.28_40.6_47.01_68.55_47.37_0.0_carga_media Bus1=59816803827373737MT.1.2.3 Phases=3
~ Conn=wye Model=1 Kv=13.8 Kw=1 pf=0.92
New Load.nome_9be9d591fe424625e42d887b5600246c707a706e99d1f4c6fcb5b0518ab9e66a_curva_diaria_MT-Tipo6_curva_anual_8.4_7.82_7.78_8.27_8.36_8.61_10.87_15.79_8.4_9.14_6.07_6.33_carga_media Bus1=59820953827435264ET.1.2.3 Phases=3
~ Conn=wye Model=1 Kv=13.8 Kw=1 pf=0.92
New Load.nome_bba00b0a0fdec0313836a4794dd6b8e86863bdd7678fd319ffe47d70551239a4_curva_diaria_MT-Tipo10_curva_anual_71.2_70.09_68.6_72.54_70.46_60.93_47.97_78.99_102.8_145.36_111.21_96.77_carga_media Bus1=59820143827387423ET.1.2.3 Phases=3
~ Conn=wye Model=1 Kv=13.8 Kw=1 pf=0.92
New Load.nome_bc15e4c502b91410168087351c9ff2127f59f7c399ae45cbd5439d7a053fe105_curva_diaria_MT-Tipo8_curva_anual_40.26_34.76_44.36_38.98_37.3_29.36_33.59_52.17_56.19_83.71_54.96_51.33_carga_media Bus1=59867300827296570MT.1.2.3 Phases=3
~ Conn=wye Model=1 Kv=13.8 Kw=1 pf=0.92
New Load.nome_c3fa1896a7142e189439602a51fa2f6387a51c5a40f06e2aed884f933ec6a224_curva_diaria_MT-Tipo1_curva_anual_24.44_20.95_22.68_24.8_22.03_20.01_15.3_27.62_43.58_63.48_63.86_53.83_carga_media Bus1=59886746827467092MT.1.2.3 Phases=3
~ Conn=wye Model=1 Kv=13.8 Kw=1 pf=0.92
New Load.nome_c6e644806fbcb144e95dd18d65291e7290fbcefa6e258841b6cd71eb264d7ba8_curva_diaria_MT-Tipo8_curva_anual_41.6_39.97_39.19_41.3_36.72_35.07_30.02_48.47_61.12_89.67_70.5_63.82_carga_media Bus1=59820143827387423ET.1.2.3 Phases=3
~ Conn=wye Model=1 Kv=13.8 Kw=1 pf=0.92
New Load.nome_e714e2f8aa2e40094c0300e0d1f87ba2f949328f88c70817e49350630bd23840_curva_diaria_MT-Tipo10_curva_anual_1.23_1.52_3.24_4.68_3.43_3.33_4.3_5.26_7.84_9.43_6.94_4.91_carga_media Bus1=59817684827436747MT.1.2.3 Phases=3
~ Conn=wye Model=1 Kv=13.8 Kw=1 pf=0.92
New Load.nome_ed2fb24611cda58e1cd55504cf25f95e45b0b791426c31130bcd1da46928285b_curva_diaria_MT-Tipo3_curva_anual_0.0_0.0_0.0_0.0_0.0_0.0_7.14_29.38_35.49_52.79_42.47_0.0_carga_media Bus1=59892805827472079MT.1.2.3 Phases=3
~ Conn=wye Model=1 Kv=13.8 Kw=1 pf=0.92
New linecode.16512328H-3_linecode_media nphases=3 BaseFreq=60
~ r1=0.000306
~ x1=0.00038500000000000003
~ c1=0
~ Normamps=365.0
~ Emergamps=511.0
New linecode.16512329H-3_linecode_media nphases=3 BaseFreq=60
~ r1=0.000975
~ x1=0.000347
~ c1=0
~ Normamps=175.0
~ Emergamps=245.0
New linecode.16512329H-3P_linecode_media nphases=3 BaseFreq=60
~ r1=0.000975
~ x1=0.000347
~ c1=0
~ Normamps=175.0
~ Emergamps=245.0
New linecode.16512375H-3_linecode_media nphases=3 BaseFreq=60
~ r1=0.000195
~ x1=0.00029099999999999997
~ c1=0
~ Normamps=495.0
~ Emergamps=693.0
New linecode.45225705C-3_linecode_media nphases=3 BaseFreq=60
~ r1=0.000732
~ x1=0.000303
~ c1=0
~ Normamps=184.0
~ Emergamps=258.0
New linecode.5281622H-3_linecode_media nphases=3 BaseFreq=60
~ r1=0.00131
~ x1=0.00041
~ c1=0
~ Normamps=68.0
~ Emergamps=68.0
New linecode.5281622H-3P_linecode_media nphases=3 BaseFreq=60
~ r1=0.00131
~ x1=0.00041
~ c1=0
~ Normamps=68.0
~ Emergamps=68.0
New linecode.5281627C-3_linecode_media nphases=3 BaseFreq=60
~ r1=0.000992
~ x1=0.00011700000000000001
~ c1=0
~ Normamps=70.0
~ Emergamps=70.0
New linecode.5281627C-3P_linecode_media nphases=3 BaseFreq=60
~ r1=0.000992
~ x1=0.00011700000000000001
~ c1=0
~ Normamps=70.0
~ Emergamps=70.0
New linecode.5281628C-3_linecode_media nphases=3 BaseFreq=60
~ r1=0.000247
~ x1=0.000259
~ c1=0
~ Normamps=291.0
~ Emergamps=291.0
New linecode.5281631C-3_linecode_media nphases=3 BaseFreq=60
~ r1=0.000739
~ x1=0.000303
~ c1=0
~ Normamps=152.0
~ Emergamps=181.0
New linecode.5281631C-3P_linecode_media nphases=3 BaseFreq=60
~ r1=0.000739
~ x1=0.000303
~ c1=0
~ Normamps=152.0
~ Emergamps=181.0
New linecode.5281632C-3_linecode_media nphases=3 BaseFreq=60
~ r1=0.00019700000000000002
~ x1=0.000251
~ c1=0
~ Normamps=368.0
~ Emergamps=400.0
New Line.16329694_linha_media Phases = 3 Bus1 = 59841020827383003MT.1.2.3 Bus2 = 59841889827382330MT.1.2.3 Linecode = 16512329H-3_linecode_media Length = 12.495 units = m
New Line.16728780_linha_media Phases = 3 Bus1 = 59823298827431836MT.1.2.3 Bus2 = 59825136827430167MT.1.2.3 Linecode = 16512375H-3_linecode_media Length = 24.827 units = m
New Line.16728781_linha_media Phases = 3 Bus1 = 59823408827431938MT.1.2.3 Bus2 = 59827871827436081MT.1.2.3 Linecode = 16512329H-3_linecode_media Length = 62.396 units = m
New Line.16728782_linha_media Phases = 3 Bus1 = 59822539827432461MT.1.2.3 Bus2 = 59823298827431836MT.1.2.3 Linecode = 16512375H-3_linecode_media Length = 9.832 units = m
New Line.16162900_linha_media Phases = 3 Bus1 = 59890722827545857MT.1.2.3 Bus2 = 59889021827545040MT.1.2.3 Linecode = 5281632C-3_linecode_media Length = 18.87 units = m
New Line.16162838_linha_media Phases = 3 Bus1 = 59841371827436069MT.1.2.3 Bus2 = 59844079827433643MT.1.2.3 Linecode = 16512329H-3_linecode_media Length = 37.859 units = m
New Line.17280690_linha_media Phases = 3 Bus1 = 59864974827463184MT.1.2.3 Bus2 = 59863927827464049MT.1.2.3 Linecode = 16512329H-3_linecode_media Length = 13.581 units = m
New Line.16899653_linha_media Phases = 3 Bus1 = 59876488827486189MT.1.2.3 Bus2 = 59879140827487897MT.1.2.3 Linecode = 16512329H-3_linecode_media Length = 31.544 units = m
New Line.16004561_linha_media Phases = 3 Bus1 = 59827689827402560MT.1.2.3 Bus2 = 59825058827405443MT.1.2.3 Linecode = 16512329H-3_linecode_media Length = 39.031 units = m
New Line.14382618_linha_media Phases = 3 Bus1 = 59904805827567786MT.1.2.3 Bus2 = 59903503827567399MT.1.2.3 Linecode = 5281632C-3_linecode_media Length = 13.583 units = m
New Line.16487219_linha_media Phases = 3 Bus1 = 59894232827510736MT.1.2.3 Bus2 = 59895190827508167MT.1.2.3 Linecode = 16512375H-3_linecode_media Length = 27.418 units = m
New Line.15027015_linha_media Phases = 3 Bus1 = 59820396827356746MT.1.2.3 Bus2 = 59820391827356704MT.1.2.3 Linecode = 16512329H-3_linecode_media Length = 1.925 units = m
New Line.13716045_linha_media Phases = 3 Bus1 = 59861692827447481MT.1.2.3 Bus2 = 59862143827447027MT.1.2.3 Linecode = 16512329H-3_linecode_media Length = 6.399 units = m
New Line.15027031_linha_media Phases = 3 Bus1 = 59839072827434502MT.1.2.3 Bus2 = 59839035827434346MT.1.2.3 Linecode = 16512329H-3P_linecode_media Length = 1.603 units = m
New Line.18163216_linha_media Phases = 3 Bus1 = 59893136827514382MT.1.2.3 Bus2 = 59891020827513592MT.1.2.3 Linecode = 5281627C-3_linecode_media Length = 19.202 units = m
New Line.13648669_linha_media Phases = 3 Bus1 = 59885738827466745MT.1.2.3 Bus2 = 59886746827467092MT.1.2.3 Linecode = 16512329H-3P_linecode_media Length = 12.163 units = m
New Line.16162831_linha_media Phases = 3 Bus1 = 59859607827322470MT.1.2.3 Bus2 = 59856736827320106MT.1.2.3 Linecode = 16512329H-3_linecode_media Length = 38.69 units = m
New Line.17280686_linha_media Phases = 3 Bus1 = 59858842827486923MT.1.2.3 Bus2 = 59858334827487828MT.1.2.3 Linecode = 16512329H-3_linecode_media Length = 10.378 units = m
New Line.13780339_linha_media Phases = 3 Bus1 = 59888308827478002MT.1.2.3 Bus2 = 59886432827476133MT.1.2.3 Linecode = 16512328H-3_linecode_media Length = 26.481 units = m
New Line.16004714_linha_media Phases = 3 Bus1 = 59863555827293063MT.1.2.3 Bus2 = 59864799827290251MT.1.2.3 Linecode = 16512328H-3_linecode_media Length = 30.749 units = m
New Line.13070459_linha_media Phases = 3 Bus1 = 59834420827463824MT.1.2.3 Bus2 = 59831342827466622MT.1.2.3 Linecode = 16512329H-3_linecode_media Length = 41.597 units = m
New Line.16162846_linha_media Phases = 3 Bus1 = 59833906827355406MT.1.2.3 Bus2 = 59836041827356610MT.1.2.3 Linecode = 16512329H-3_linecode_media Length = 26.015 units = m
New Line.13090578_linha_media Phases = 3 Bus1 = 59816646827375665MT.1.2.3 Bus2 = 59817405827374681MT.1.2.3 Linecode = 16512328H-3_linecode_media Length = 12.427 units = m
New Line.16559226_linha_media Phases = 3 Bus1 = 59843750827383664MT.1.2.3 Bus2 = 59846538827381327MT.1.2.3 Linecode = 16512329H-3_linecode_media Length = 36.379 units = m
New Line.13292300_linha_media Phases = 3 Bus1 = 59891782827520365MT.1.2.3 Bus2 = 59891289827519149MT.1.2.3 Linecode = 5281627C-3_linecode_media Length = 14.62 units = m
New Line.13723065_linha_media Phases = 3 Bus1 = 59889521827559081MT.1.2.3 Bus2 = 59890492827555710MT.1.2.3 Linecode = 5281632C-3_linecode_media Length = 32.116 units = m
New Line.17176175_linha_media Phases = 3 Bus1 = 59879382827323569MT.1.2.3 Bus2 = 59879774827322628MT.1.2.3 Linecode = 16512329H-3_linecode_media Length = 10.194 units = m
New Line.16005844_linha_media Phases = 3 Bus1 = 59847290827362867MT.1.2.3 Bus2 = 59849882827364175MT.1.2.3 Linecode = 16512329H-3_linecode_media Length = 29.033 units = m
New Line.16845069_linha_media Phases = 3 Bus1 = 59893706827563305MT.1.2.3 Bus2 = 59890324827561925MT.1.2.3 Linecode = 5281632C-3_linecode_media Length = 36.527 units = m
New Line.18163217_linha_media Phases = 3 Bus1 = 59889102827512036MT.1.2.3 Bus2 = 59886816827510034MT.1.2.3 Linecode = 16512329H-3_linecode_media Length = 30.387 units = m
New Line.15365327_linha_media Phases = 3 Bus1 = 59860027827457816MT.1.2.3 Bus2 = 59857275827454769MT.1.2.3 Linecode = 16512328H-3_linecode_media Length = 41.058 units = m
New Line.12912105_linha_media Phases = 3 Bus1 = 59830226827373527MT.1.2.3 Bus2 = 59832229827376717MT.1.2.3 Linecode = 16512329H-3_linecode_media Length = 36.733 units = m
New Line.12906903_linha_media Phases = 3 Bus1 = 59899102827502118MT.1.2.3 Bus2 = 59900985827495973MT.1.2.3 Linecode = 16512328H-3_linecode_media Length = 60.899 units = m
New Line.16005787_linha_media Phases = 3 Bus1 = 59877571827322651MT.1.2.3 Bus2 = 59878934827323308MT.1.2.3 Linecode = 16512329H-3_linecode_media Length = 15.131 units = m
New Line.17280683_linha_media Phases = 3 Bus1 = 59879957827472300MT.1.2.3 Bus2 = 59879099827473224MT.1.2.3 Linecode = 16512329H-3_linecode_media Length = 12.609 units = m
New Line.16559221_linha_media Phases = 3 Bus1 = 59897598827483570MT.1.2.3 Bus2 = 59894840827482085MT.1.2.3 Linecode = 16512328H-3_linecode_media Length = 31.324 units = m
New Line.13165525_linha_media Phases = 3 Bus1 = 59889173827473296MT.1.2.3 Bus2 = 59889803827472568MT.1.2.3 Linecode = 16512329H-3_linecode_media Length = 9.627 units = m
New Line.16559222_linha_media Phases = 3 Bus1 = 59844079827433643MT.1.2.3 Bus2 = 59846586827431536MT.1.2.3 Linecode = 16512329H-3_linecode_media Length = 32.748 units = m
New Line.17145825_linha_media Phases = 3 Bus1 = 59813437827379608MT.1.2.3 Bus2 = 59815537827377095MT.1.2.3 Linecode = 16512328H-3_linecode_media Length = 32.749 units = m
New Line.18145237_linha_media Phases = 3 Bus1 = 59817405827374681MT.1.2.3 Bus2 = 59818346827373370MT.1.2.3 Linecode = 16512328H-3_linecode_media Length = 16.138 units = m
New Line.15365316_linha_media Phases = 3 Bus1 = 59893136827514382MT.1.2.3 Bus2 = 59894232827510736MT.1.2.3 Linecode = 16512375H-3_linecode_media Length = 38.072 units = m
New Line.13723139_linha_media Phases = 3 Bus1 = 59896493827504164MT.1.2.3 Bus2 = 59899102827502118MT.1.2.3 Linecode = 5281632C-3_linecode_media Length = 31.444 units = m
New Line.16162839_linha_media Phases = 3 Bus1 = 59844238827467403MT.1.2.3 Bus2 = 59845906827469515MT.1.2.3 Linecode = 16512329H-3_linecode_media Length = 26.912 units = m
New Line.16162702_linha_media Phases = 3 Bus1 = 59860210827350144MT.1.2.3 Bus2 = 59859749827353149MT.1.2.3 Linecode = 16512329H-3_linecode_media Length = 30.402 units = m
New Line.13165526_linha_media Phases = 3 Bus1 = 59889803827472568MT.1.2.3 Bus2 = 59890397827472156MT.1.2.3 Linecode = 16512329H-3_linecode_media Length = 7.229 units = m
New Line.16004556_linha_media Phases = 3 Bus1 = 59845906827469515MT.1.2.3 Bus2 = 59847124827471117MT.1.2.3 Linecode = 16512329H-3_linecode_media Length = 20.124 units = m
New Line.16726459_linha_media Phases = 3 Bus1 = 59833629827362589MT.1.2.3 Bus2 = 59837115827364440MT.1.2.3 Linecode = 16512329H-3_linecode_media Length = 39.469 units = m
New Line.17365695_linha_media Phases = 3 Bus1 = 59859749827353149MT.1.2.3 Bus2 = 59859142827356250MT.1.2.3 Linecode = 16512329H-3_linecode_media Length = 31.598 units = m
New Line.15027032_linha_media Phases = 3 Bus1 = 59816584827375568MT.1.2.3 Bus2 = 59816646827375665MT.1.2.3 Linecode = 16512329H-3_linecode_media Length = 1.451 units = m
New Line.16007770_linha_media Phases = 3 Bus1 = 59890397827472156MT.1.2.3 Bus2 = 59891696827471066MT.1.2.3 Linecode = 16512329H-3_linecode_media Length = 16.957 units = m
New Line.16007745_linha_media Phases = 3 Bus1 = 59890492827555710MT.1.2.3 Bus2 = 59892315827552014MT.1.2.3 Linecode = 5281632C-3_linecode_media Length = 41.211 units = m
New Line.16007772_linha_media Phases = 3 Bus1 = 59864571827477867MT.1.2.3 Bus2 = 59862762827480467MT.1.2.3 Linecode = 16512329H-3_linecode_media Length = 31.674 units = m
New Line.16928439_linha_media Phases = 3 Bus1 = 59850552827447112MT.1.2.3 Bus2 = 59845939827442113MT.1.2.3 Linecode = 16512328H-3_linecode_media Length = 68.022 units = m
New Line.17280694_linha_media Phases = 3 Bus1 = 59842552827438426MT.1.2.3 Bus2 = 59841012827436574MT.1.2.3 Linecode = 16512328H-3_linecode_media Length = 25.584 units = m
New Line.16227602_linha_media Phases = 3 Bus1 = 59900985827495973MT.1.2.3 Bus2 = 59902885827490848MT.1.2.3 Linecode = 16512328H-3_linecode_media Length = 54.659 units = m
New Line.17176170_linha_media Phases = 3 Bus1 = 59861365827323816MT.1.2.3 Bus2 = 59862248827322652MT.1.2.3 Linecode = 16512329H-3_linecode_media Length = 14.61 units = m
New Line.12848291_linha_media Phases = 3 Bus1 = 59884905827536943MT.1.2.3 Bus2 = 59886003827533655MT.1.2.3 Linecode = 5281632C-3_linecode_media Length = 34.179 units = m
New Line.15365850_linha_media Phases = 3 Bus1 = 59883770827474702MT.1.2.3 Bus2 = 59881546827473576MT.1.2.3 Linecode = 16512328H-3_linecode_media Length = 24.928 units = m
New Line.16162849_linha_media Phases = 3 Bus1 = 59855007827330753MT.1.2.3 Bus2 = 59856908827328840MT.1.2.3 Linecode = 16512329H-3_linecode_media Length = 26.969 units = m
New Line.17145823_linha_media Phases = 3 Bus1 = 59828519827396508MT.1.2.3 Bus2 = 59826915827394620MT.1.2.3 Linecode = 16512328H-3_linecode_media Length = 24.774 units = m
New Line.15365855_linha_media Phases = 3 Bus1 = 59867737827465340MT.1.2.3 Bus2 = 59865646827463902MT.1.2.3 Linecode = 16512328H-3_linecode_media Length = 25.377 units = m
New Line.16874056_linha_media Phases = 3 Bus1 = 59835216827403383MT.1.2.3 Bus2 = 59832599827400684MT.1.2.3 Linecode = 16512328H-3_linecode_media Length = 37.594 units = m
New Line.13704971_linha_media Phases = 3 Bus1 = 59829714827360435MT.1.2.3 Bus2 = 59829153827361337MT.1.2.3 Linecode = 16512329H-3_linecode_media Length = 10.622 units = m
New Line.16726460_linha_media Phases = 3 Bus1 = 59862248827322652MT.1.2.3 Bus2 = 59864131827320164MT.1.2.3 Linecode = 16512329H-3_linecode_media Length = 31.202 units = m
New Line.16485727_linha_media Phases = 3 Bus1 = 59881723827470717MT.1.2.3 Bus2 = 59884447827467982MT.1.2.3 Linecode = 16512329H-3_linecode_media Length = 40.1 units = m
New Line.16726463_linha_media Phases = 3 Bus1 = 59884820827313243MT.1.2.3 Bus2 = 59886558827309894MT.1.2.3 Linecode = 16512329H-3_linecode_media Length = 37.731 units = m
New Line.17324443_linha_media Phases = 3 Bus1 = 59857237827454914MT.1.2.3 Bus2 = 59856534827457622MT.1.2.3 Linecode = 16512329H-3_linecode_media Length = 29.477 units = m
New Line.16004554_linha_media Phases = 3 Bus1 = 59839185827468594MT.1.2.3 Bus2 = 59836274827471285MT.1.2.3 Linecode = 16512329H-3_linecode_media Length = 39.643 units = m
New Line.13240049_linha_media Phases = 3 Bus1 = 59891020827513592MT.1.2.3 Bus2 = 59889102827512036MT.1.2.3 Linecode = 16512329H-3_linecode_media Length = 21.243 units = m
New Line.16004629_linha_media Phases = 3 Bus1 = 59842573827342426MT.1.2.3 Bus2 = 59845174827339851MT.1.2.3 Linecode = 16512329H-3_linecode_media Length = 36.6 units = m
New Line.16487221_linha_media Phases = 3 Bus1 = 59852609827449509MT.1.2.3 Bus2 = 59850552827447112MT.1.2.3 Linecode = 16512328H-3_linecode_media Length = 31.586 units = m
New Line.15366517_linha_media Phases = 3 Bus1 = 59817327827411430MT.1.2.3 Bus2 = 59813910827412033MT.1.2.3 Linecode = 16512329H-3_linecode_media Length = 34.698 units = m
New Line.17145550_linha_media Phases = 3 Bus1 = 59831040827399166MT.1.2.3 Bus2 = 59831856827398087MT.1.2.3 Linecode = 16512329H-3_linecode_media Length = 13.528 units = m
New Line.18441429_linha_media Phases = 3 Bus1 = 59887531827538016MT.1.2.3 Bus2 = 59884905827536943MT.1.2.3 Linecode = 5281632C-3_linecode_media Length = 28.368 units = m
New Line.15941729_linha_media Phases = 3 Bus1 = 59856838827454281MT.1.2.3 Bus2 = 59856473827453966MT.1.2.3 Linecode = 16512328H-3_linecode_media Length = 4.821 units = m
New Line.13431134_linha_media Phases = 3 Bus1 = 59837168827461293MT.1.2.3 Bus2 = 59835798827462585MT.1.2.3 Linecode = 16512329H-3_linecode_media Length = 15.983 units = m
New Line.17145840_linha_media Phases = 3 Bus1 = 59829714827360435MT.1.2.3 Bus2 = 59828663827359710MT.1.2.3 Linecode = 16512329H-3_linecode_media Length = 12.768 units = m
New Line.16559844_linha_media Phases = 3 Bus1 = 59857218827337576MT.1.2.3 Bus2 = 59859685827335232MT.1.2.3 Linecode = 16512329H-3_linecode_media Length = 34.03 units = m
New Line.13736102_linha_media Phases = 3 Bus1 = 59818777827435494MT.1.2.3 Bus2 = 59818006827434500MT.1.2.3 Linecode = 16512329H-3_linecode_media Length = 14.084 units = m
New Line.16162841_linha_media Phases = 3 Bus1 = 59820711827446113MT.1.2.3 Bus2 = 59819225827444511MT.1.2.3 Linecode = 16512375H-3_linecode_media Length = 21.851 units = m
New Line.16004700_linha_media Phases = 3 Bus1 = 59867177827315012MT.1.2.3 Bus2 = 59868019827312296MT.1.2.3 Linecode = 16512329H-3_linecode_media Length = 28.435 units = m
New Line.16004640_linha_media Phases = 3 Bus1 = 59864799827290251MT.1.2.3 Bus2 = 59866966827286978MT.1.2.3 Linecode = 16512328H-3_linecode_media Length = 39.254 units = m
New Line.17176168_linha_media Phases = 3 Bus1 = 59861365827323816MT.1.2.3 Bus2 = 59862380827324580MT.1.2.3 Linecode = 16512329H-3_linecode_media Length = 12.704 units = m
New Line.16726728_linha_media Phases = 3 Bus1 = 59817389827442648MT.1.2.3 Bus2 = 59815219827440285MT.1.2.3 Linecode = 16512375H-3_linecode_media Length = 32.082 units = m
New Line.16726735_linha_media Phases = 3 Bus1 = 59826915827394620MT.1.2.3 Bus2 = 59825325827392925MT.1.2.3 Linecode = 16512328H-3_linecode_media Length = 23.24 units = m
New Line.16004631_linha_media Phases = 3 Bus1 = 59842546827333068MT.1.2.3 Bus2 = 59844311827329477MT.1.2.3 Linecode = 16512328H-3_linecode_media Length = 40.013 units = m
New Line.15940992_linha_media Phases = 3 Bus1 = 59832229827376717MT.1.2.3 Bus2 = 59832979827378654MT.1.2.3 Linecode = 16512329H-3_linecode_media Length = 20.771 units = m
New Line.12857795_linha_media Phases = 3 Bus1 = 59818726827371925MT.1.2.3 Bus2 = 59816839827370835MT.1.2.3 Linecode = 16512329H-3_linecode_media Length = 21.792 units = m
New Line.16007773_linha_media Phases = 3 Bus1 = 59862762827480467MT.1.2.3 Bus2 = 59861322827482732MT.1.2.3 Linecode = 16512329H-3_linecode_media Length = 26.84 units = m
New Line.17176447_linha_media Phases = 3 Bus1 = 59856736827320106MT.1.2.3 Bus2 = 59855668827319307MT.1.2.3 Linecode = 16512329H-3_linecode_media Length = 13.338 units = m
New Line.16162847_linha_media Phases = 3 Bus1 = 59837926827357614MT.1.2.3 Bus2 = 59840560827358803MT.1.2.3 Linecode = 16512329H-3_linecode_media Length = 28.899 units = m
New Line.17176161_linha_media Phases = 3 Bus1 = 59831734827353647MT.1.2.3 Bus2 = 59833187827350478MT.1.2.3 Linecode = 16512328H-3_linecode_media Length = 34.862 units = m
New Line.17280980_linha_media Phases = 3 Bus1 = 59838549827460130MT.1.2.3 Bus2 = 59837168827461293MT.1.2.3 Linecode = 16512329H-3_linecode_media Length = 18.055 units = m
New Line.16726462_linha_media Phases = 3 Bus1 = 59882822827316741MT.1.2.3 Bus2 = 59884820827313243MT.1.2.3 Linecode = 16512329H-3_linecode_media Length = 40.284 units = m
New Line.17283159_linha_media Phases = 3 Bus1 = 59883770827474702MT.1.2.3 Bus2 = 59882758827476439MT.1.2.3 Linecode = 16512329H-3_linecode_media Length = 18.151 units = m
New Line.16004713_linha_media Phases = 3 Bus1 = 59849858827344199MT.1.2.3 Bus2 = 59851481827342286MT.1.2.3 Linecode = 16512329H-3_linecode_media Length = 25.087 units = m
New Line.17179266_linha_media Phases = 3 Bus1 = 59871956827305211MT.1.2.3 Bus2 = 59874584827306092MT.1.2.3 Linecode = 16512329H-3_linecode_media Length = 26.459 units = m
New Line.13704973_linha_media Phases = 3 Bus1 = 59832463827355125MT.1.2.3 Bus2 = 59831169827357397MT.1.2.3 Linecode = 16512329H-3_linecode_media Length = 26.147 units = m
New Line.13843946_linha_media Phases = 3 Bus1 = 59885485827475566MT.1.2.3 Bus2 = 59884881827475296MT.1.2.3 Linecode = 16512328H-3_linecode_media Length = 6.616 units = m
New Line.16163792_linha_media Phases = 3 Bus1 = 59881098827479149MT.1.2.3 Bus2 = 59882057827479030MT.1.2.3 Linecode = 16512329H-3P_linecode_media Length = 11.166 units = m
New Line.15940433_linha_media Phases = 3 Bus1 = 59860781827446299MT.1.2.3 Bus2 = 59859678827445111MT.1.2.3 Linecode = 16512329H-3_linecode_media Length = 16.211 units = m
New Line.16004633_linha_media Phases = 3 Bus1 = 59848307827322284MT.1.2.3 Bus2 = 59849701827319470MT.1.2.3 Linecode = 16512328H-3_linecode_media Length = 31.404 units = m
New Line.17145822_linha_media Phases = 3 Bus1 = 59828519827396508MT.1.2.3 Bus2 = 59831129827394985MT.1.2.3 Linecode = 16512329H-3_linecode_media Length = 30.219 units = m
New Line.16786000_linha_media Phases = 3 Bus1 = 59821965827447372MT.1.2.3 Bus2 = 59820711827446113MT.1.2.3 Linecode = 16512375H-3_linecode_media Length = 16.271 units = m
New Line.16037897_linha_media Phases = 3 Bus1 = 59828247827448172MT.1.2.3 Bus2 = 59826291827449912MT.1.2.3 Linecode = 16512328H-3_linecode_media Length = 26.179 units = m
New Line.16004636_linha_media Phases = 3 Bus1 = 59853584827312012MT.1.2.3 Bus2 = 59854960827309321MT.1.2.3 Linecode = 16512328H-3_linecode_media Length = 30.224 units = m
New Line.16162840_linha_media Phases = 3 Bus1 = 59833956827438950MT.1.2.3 Bus2 = 59831430827441297MT.1.2.3 Linecode = 16512375H-3_linecode_media Length = 34.481 units = m
New Line.16812089_linha_media Phases = 3 Bus1 = 59840632827458149MT.1.2.3 Bus2 = 59843571827455543MT.1.2.3 Linecode = 16512329H-3_linecode_media Length = 39.28 units = m
New Line.17176176_linha_media Phases = 3 Bus1 = 59879382827323569MT.1.2.3 Bus2 = 59878627827325148MT.1.2.3 Linecode = 16512329H-3_linecode_media Length = 17.502 units = m
New Line.12857793_linha_media Phases = 3 Bus1 = 59819148827372326MT.1.2.3 Bus2 = 59820425827372860MT.1.2.3 Linecode = 16512329H-3_linecode_media Length = 13.842 units = m
New Line.17145852_linha_media Phases = 3 Bus1 = 59814456827439518MT.1.2.3 Bus2 = 59813662827438614MT.1.2.3 Linecode = 16512375H-3_linecode_media Length = 12.032 units = m
New Line.16162843_linha_media Phases = 3 Bus1 = 59820143827387423MT.1.2.3 Bus2 = 59817380827384304MT.1.2.3 Linecode = 16512328H-3_linecode_media Length = 41.668 units = m
New Line.17176172_linha_media Phases = 3 Bus1 = 59880144827323985MT.1.2.3 Bus2 = 59881629827324840MT.1.2.3 Linecode = 16512329H-3_linecode_media Length = 17.135 units = m
New Line.15365410_linha_media Phases = 3 Bus1 = 59839973827355295MT.1.2.3 Bus2 = 59841120827353156MT.1.2.3 Linecode = 16512329H-3_linecode_media Length = 25.77 units = m
New Line.16163790_linha_media Phases = 3 Bus1 = 59867619827465432MT.1.2.3 Bus2 = 59865452827467121MT.1.2.3 Linecode = 16512329H-3_linecode_media Length = 28.971 units = m
New Line.13733055_linha_media Phases = 3 Bus1 = 59844320827361153MT.1.2.3 Bus2 = 59844002827362132MT.1.2.3 Linecode = 16512329H-3_linecode_media Length = 10.294 units = m
New Line.17176449_linha_media Phases = 3 Bus1 = 59855668827319307MT.1.2.3 Bus2 = 59855202827320014MT.1.2.3 Linecode = 16512329H-3_linecode_media Length = 8.468 units = m
New Line.16005782_linha_media Phases = 3 Bus1 = 59858164827346628MT.1.2.3 Bus2 = 59860684827347308MT.1.2.3 Linecode = 16512329H-3_linecode_media Length = 26.101 units = m
New Line.16004644_linha_media Phases = 3 Bus1 = 59850293827335193MT.1.2.3 Bus2 = 59852866827332956MT.1.2.3 Linecode = 16512329H-3_linecode_media Length = 34.095 units = m
New Line.16726730_linha_media Phases = 3 Bus1 = 59834011827422282MT.1.2.3 Bus2 = 59836960827419646MT.1.2.3 Linecode = 16512375H-3_linecode_media Length = 39.554 units = m
New Line.16004635_linha_media Phases = 3 Bus1 = 59851401827315956MT.1.2.3 Bus2 = 59853584827312012MT.1.2.3 Linecode = 16512328H-3_linecode_media Length = 45.078 units = m
New Line.16899654_linha_media Phases = 3 Bus1 = 59878615827482636MT.1.2.3 Bus2 = 59876488827486189MT.1.2.3 Linecode = 16512329H-3_linecode_media Length = 41.41 units = m
New Line.13070652_linha_media Phases = 3 Bus1 = 59831342827466622MT.1.2.3 Bus2 = 59829717827468095MT.1.2.3 Linecode = 16512329H-3_linecode_media Length = 21.933 units = m
New Line.12848292_linha_media Phases = 3 Bus1 = 59884905827536943MT.1.2.3 Bus2 = 59883846827539687MT.1.2.3 Linecode = 5281632C-3_linecode_media Length = 30.035 units = m
New Line.15365373_linha_media Phases = 3 Bus1 = 59833821827351453MT.1.2.3 Bus2 = 59834100827350734MT.1.2.3 Linecode = 16512329H-3_linecode_media Length = 9.213 units = m
New Line.18631297_linha_media Phases = 3 Bus1 = 59822082827449736MT.1.2.3 Bus2 = 59821662827450099MT.1.2.3 Linecode = 16512375H-3_linecode_media Length = 5.551 units = m
New Line.13716042_linha_media Phases = 3 Bus1 = 59856141827452239MT.1.2.3 Bus2 = 59858893827450415MT.1.2.3 Linecode = 16512329H-3_linecode_media Length = 31.233 units = m
New Line.13709908_linha_media Phases = 3 Bus1 = 59825987827363235MT.1.2.3 Bus2 = 59827816827360664MT.1.2.3 Linecode = 16512328H-3_linecode_media Length = 31.552 units = m
New Line.16005778_linha_media Phases = 3 Bus1 = 59869143827309778MT.1.2.3 Bus2 = 59870551827306824MT.1.2.3 Linecode = 16512329H-3_linecode_media Length = 32.724 units = m
New Line.13736101_linha_media Phases = 3 Bus1 = 59816279827437797MT.1.2.3 Bus2 = 59817684827436747MT.1.2.3 Linecode = 16512375H-3_linecode_media Length = 17.54 units = m
New Line.16928438_linha_media Phases = 3 Bus1 = 59805334827370121MT.1.2.3 Bus2 = 59803162827367520MT.1.2.3 Linecode = 16512328H-3_linecode_media Length = 33.886 units = m
New Line.18631296_linha_media Phases = 3 Bus1 = 59821662827450099MT.1.2.3 Bus2 = 59818654827452423MT.1.2.3 Linecode = 16512375H-3_linecode_media Length = 38.012 units = m
New Line.16007768_linha_media Phases = 3 Bus1 = 59882758827476439MT.1.2.3 Bus2 = 59880796827479214MT.1.2.3 Linecode = 16512329H-3_linecode_media Length = 33.985 units = m
New Line.18634906_linha_media Phases = 3 Bus1 = 59868519827295317MT.1.2.3 Bus2 = 59867300827296570MT.1.2.3 Linecode = 5281627C-3_linecode_media Length = 18.98 units = m
New Line.16726454_linha_media Phases = 3 Bus1 = 59825325827392925MT.1.2.3 Bus2 = 59822848827390246MT.1.2.3 Linecode = 16512328H-3_linecode_media Length = 36.486 units = m
New Line.17324215_linha_media Phases = 3 Bus1 = 59830423827446335MT.1.2.3 Bus2 = 59829566827447570MT.1.2.3 Linecode = 16512329H-3_linecode_media Length = 16.533 units = m
New Line.15940502_linha_media Phases = 3 Bus1 = 59830509827446212MT.1.2.3 Bus2 = 59828247827448172MT.1.2.3 Linecode = 16512328H-3_linecode_media Length = 29.93 units = m
New Line.16162898_linha_media Phases = 3 Bus1 = 59860718827298479MT.1.2.3 Bus2 = 59862120827296078MT.1.2.3 Linecode = 16512328H-3_linecode_media Length = 27.804 units = m
New Line.17280984_linha_media Phases = 3 Bus1 = 59842427827465683MT.1.2.3 Bus2 = 59845113827463360MT.1.2.3 Linecode = 16512329H-3_linecode_media Length = 35.512 units = m
New Line.13706137_linha_media Phases = 3 Bus1 = 59869874827458012MT.1.2.3 Bus2 = 59872078827456020MT.1.2.3 Linecode = 16512329H-3_linecode_media Length = 29.708 units = m
New Line.16928444_linha_media Phases = 3 Bus1 = 59871786827467280MT.1.2.3 Bus2 = 59867737827465340MT.1.2.3 Linecode = 16512328H-3_linecode_media Length = 44.898 units = m
New Line.16163794_linha_media Phases = 3 Bus1 = 59839025827434196MT.1.2.3 Bus2 = 59838957827433194MT.1.2.3 Linecode = 16512329H-3P_linecode_media Length = 11.546 units = m
New Line.16005783_linha_media Phases = 3 Bus1 = 59851481827342286MT.1.2.3 Bus2 = 59854891827339752MT.1.2.3 Linecode = 16512329H-3_linecode_media Length = 42.484 units = m
New Line.16007775_linha_media Phases = 3 Bus1 = 59835338827441246MT.1.2.3 Bus2 = 59832692827443724MT.1.2.3 Linecode = 16512328H-3_linecode_media Length = 36.252 units = m
New Line.15901048_linha_media Phases = 3 Bus1 = 59812907827378854MT.1.2.3 Bus2 = 59810971827376595MT.1.2.3 Linecode = 16512328H-3_linecode_media Length = 31.254 units = m
New Line.13518897_linha_media Phases = 3 Bus1 = 59836440827378773MT.1.2.3 Bus2 = 59834005827376499MT.1.2.3 Linecode = 16512329H-3_linecode_media Length = 33.317 units = m
New Line.13722792_linha_media Phases = 3 Bus1 = 59891838827520504MT.1.2.3 Bus2 = 59893250827516491MT.1.2.3 Linecode = 16512375H-3_linecode_media Length = 42.542 units = m
New Line.17176178_linha_media Phases = 3 Bus1 = 59879382827323569MT.1.2.3 Bus2 = 59880144827323985MT.1.2.3 Linecode = 16512329H-3_linecode_media Length = 8.682 units = m
New Line.15365372_linha_media Phases = 3 Bus1 = 59841120827353156MT.1.2.3 Bus2 = 59842858827350576MT.1.2.3 Linecode = 16512329H-3_linecode_media Length = 31.108 units = m
New Line.14862547_linha_media Phases = 3 Bus1 = 59903904827575155MT.1.2.3 Bus2 = 59904188827574169MT.1.2.3 Linecode = 5281632C-3_linecode_media Length = 10.261 units = m
New Line.16526913_linha_media Phases = 3 Bus1 = 59832932827375279MT.1.2.3 Bus2 = 59830226827373527MT.1.2.3 Linecode = 16512329H-3_linecode_media Length = 32.237 units = m
New Line.16726729_linha_media Phases = 3 Bus1 = 59831126827424858MT.1.2.3 Bus2 = 59834011827422282MT.1.2.3 Linecode = 16512375H-3_linecode_media Length = 38.677 units = m
New Line.15365325_linha_media Phases = 3 Bus1 = 59853800827451179MT.1.2.3 Bus2 = 59852609827449509MT.1.2.3 Linecode = 16512328H-3_linecode_media Length = 20.512 units = m
New Line.12677041_linha_media Phases = 3 Bus1 = 59839072827434502MT.1.2.3 Bus2 = 59835766827437178MT.1.2.3 Linecode = 16512375H-3_linecode_media Length = 38.895 units = m
New Line.16004639_linha_media Phases = 3 Bus1 = 59862120827296078MT.1.2.3 Bus2 = 59863555827293063MT.1.2.3 Linecode = 16512328H-3_linecode_media Length = 33.391 units = m
New Line.13723143_linha_media Phases = 3 Bus1 = 59828782827443618MT.1.2.3 Bus2 = 59827132827444835MT.1.2.3 Linecode = 16512375H-3_linecode_media Length = 22.005 units = m
New Line.17280678_linha_media Phases = 3 Bus1 = 59886432827476133MT.1.2.3 Bus2 = 59885633827476980MT.1.2.3 Linecode = 16512329H-3_linecode_media Length = 11.644 units = m
New Line.13728287_linha_media Phases = 3 Bus1 = 59825169827359492MT.1.2.3 Bus2 = 59822561827358073MT.1.2.3 Linecode = 5281632C-3_linecode_media Length = 29.69 units = m
New Line.17145821_linha_media Phases = 3 Bus1 = 59841370827385845MT.1.2.3 Bus2 = 59842566827385052MT.1.2.3 Linecode = 16512329H-3_linecode_media Length = 14.35 units = m
New Line.17280689_linha_media Phases = 3 Bus1 = 59864974827463184MT.1.2.3 Bus2 = 59866599827461721MT.1.2.3 Linecode = 16512329H-3_linecode_media Length = 21.865 units = m
New Line.16162904_linha_media Phases = 3 Bus1 = 59828532827359611MT.1.2.3 Bus2 = 59830090827356795MT.1.2.3 Linecode = 16512328H-3_linecode_media Length = 32.183 units = m
New Line.15027028_linha_media Phases = 3 Bus1 = 59816413827375946MT.1.2.3 Bus2 = 59816721827376234MT.1.2.3 Linecode = 16512329H-3_linecode_media Length = 2.369 units = m
New Line.16726726_linha_media Phases = 3 Bus1 = 59843987827443483MT.1.2.3 Bus2 = 59842122827445246MT.1.2.3 Linecode = 16512329H-3_linecode_media Length = 25.664 units = m
New Line.16007776_linha_media Phases = 3 Bus1 = 59836244827457304MT.1.2.3 Bus2 = 59837252827458683MT.1.2.3 Linecode = 16512329H-3_linecode_media Length = 17.081 units = m
New Line.13281637_linha_media Phases = 3 Bus1 = 59887175827308791MT.1.2.3 Bus2 = 59889297827308163MT.1.2.3 Linecode = 5281627C-3P_linecode_media Length = 23.633 units = m
New Line.16005781_linha_media Phases = 3 Bus1 = 59856457827346688MT.1.2.3 Bus2 = 59858164827346628MT.1.2.3 Linecode = 16512329H-3_linecode_media Length = 17.081 units = m
New Line.15366586_linha_media Phases = 3 Bus1 = 59820413827410398MT.1.2.3 Bus2 = 59817327827411430MT.1.2.3 Linecode = 16512329H-3_linecode_media Length = 32.54 units = m
New Line.13484922_linha_media Phases = 3 Bus1 = 59845722827414681MT.1.2.3 Bus2 = 59844877827413510MT.1.2.3 Linecode = 5281628C-3_linecode_media Length = 14.308 units = m
New Line.13709909_linha_media Phases = 3 Bus1 = 59827816827360664MT.1.2.3 Bus2 = 59828532827359611MT.1.2.3 Linecode = 16512328H-3_linecode_media Length = 12.734 units = m
New Line.16558953_linha_media Phases = 3 Bus1 = 59888881827528238MT.1.2.3 Bus2 = 59889593827525799MT.1.2.3 Linecode = 16512375H-3_linecode_media Length = 25.408 units = m
New Line.16812087_linha_media Phases = 3 Bus1 = 59879774827322628MT.1.2.3 Bus2 = 59881167827319813MT.1.2.3 Linecode = 16512329H-3_linecode_media Length = 31.408 units = m
...